DSS_Simulator/ieee650v2_Renamed_withpv/ieee650_VLN_Node.Txt

LINE-GROUND and LINE-LINE VOLTAGES BY BUS & NODE

Bus  Node    VLN (kV)   Angle      pu     Base kV    Node-Node   VLL (kV)  Angle      pu

1 .. 1       69.715 /_    0.0      1.05   115.000        1-2     120.75 /_   30.0      1.05
   - 2       69.715 /_ -120.0      1.05   115.000        2-3     120.75 /_  -90.0      1.05
   - 3       69.715 /_  120.0      1.05   115.000        3-1     120.75 /_  150.0      1.05
7 .. 1       7.5977 /_  -33.6    1.0553    12.470        1-2     13.145 /_   -3.6    1.0541
   - 2       7.5886 /_ -153.5     1.054    12.470        2-3     13.094 /_ -123.5      1.05
   - 3       7.5438 /_   86.7    1.0478    12.470        3-1     13.131 /_  116.7     1.053
8 .. 1       7.5961 /_  -33.6    1.0551    12.470        1-2     13.142 /_   -3.6    1.0539
   - 2       7.5872 /_ -153.5    1.0538    12.470        2-3     13.092 /_ -123.5    1.0498
   - 3       7.5426 /_   86.7    1.0477    12.470        3-1     13.128 /_  116.6    1.0528
9 .. 1       7.5939 /_  -33.6    1.0548    12.470        1-2     13.139 /_   -3.6    1.0536
   - 2       7.5854 /_ -153.5    1.0536    12.470        2-3     13.089 /_ -123.5    1.0496
   - 3       7.5412 /_   86.6    1.0474    12.470        3-1     13.126 /_  116.6    1.0526
10 . 1       7.5881 /_  -33.7     1.054    12.470        1-2     13.129 /_   -3.7    1.0529
   - 2       7.5806 /_ -153.6    1.0529    12.470        2-3      13.08 /_ -123.6    1.0489
   - 3       7.5372 /_   86.6    1.0469    12.470        3-1     13.118 /_  116.5     1.052
11 . 1        7.579 /_  -33.9    1.0527    12.470        1-2     13.114 /_   -3.8    1.0516
   - 2       7.5731 /_ -153.7    1.0519    12.470        2-3     13.068 /_ -123.7    1.0479
   - 3       7.5311 /_   86.5     1.046    12.470        3-1     13.107 /_  116.4    1.0511
12 . 1       7.5687 /_  -34.0    1.0513    12.470        1-2     13.097 /_   -4.0    1.0503
   - 2       7.5646 /_ -153.9    1.0507    12.470        2-3     13.053 /_ -123.9    1.0468
   - 3       7.5241 /_   86.3    1.0451    12.470        3-1     13.094 /_  116.2      1.05
13 . 1        7.565 /_  -34.1    1.0508    12.470        1-2     13.091 /_   -4.0    1.0498
   - 2       7.5615 /_ -153.9    1.0503    12.470        2-3     13.048 /_ -123.9    1.0464
   - 3       7.5216 /_   86.3    1.0447    12.470        3-1     13.089 /_  116.2    1.0496
14 . 1       7.5561 /_  -34.2    1.0495    12.470        1-2     13.076 /_   -4.1    1.0486
   - 2       7.5545 /_ -154.1    1.0493    12.470        2-3     13.036 /_ -124.0    1.0454
   - 3       7.5155 /_   86.2    1.0439    12.470        3-1     13.078 /_  116.1    1.0487
15 . 1       7.5557 /_  -34.2    1.0495    12.470        1-2     13.075 /_   -4.1    1.0485
   - 2       7.5541 /_ -154.1    1.0492    12.470        2-3     13.035 /_ -124.0    1.0453
   - 3       7.5151 /_   86.2    1.0438    12.470        3-1     13.077 /_  116.1    1.0487
16 . 1       7.5519 /_  -34.3    1.0489    12.470        1-2     13.069 /_   -4.2     1.048
   - 2       7.5511 /_ -154.1    1.0488    12.470        2-3      13.03 /_ -124.1    1.0449
   - 3       7.5125 /_   86.1    1.0435    12.470        3-1     13.072 /_  116.0    1.0483
17 . 1       7.5497 /_  -34.3    1.0486    12.470        1-2     13.065 /_   -4.2    1.0477
   - 2       7.5491 /_ -154.1    1.0485    12.470        2-3     13.027 /_ -124.1    1.0447
   - 3       7.5115 /_   86.1    1.0433    12.470        3-1      13.07 /_  116.0    1.0481
18 . 1       7.5492 /_  -34.3    1.0486    12.470        1-2     13.065 /_   -4.2    1.0477
   - 2       7.5486 /_ -154.2    1.0485    12.470        2-3     13.026 /_ -124.1    1.0446
   - 3       7.5111 /_   86.1    1.0433    12.470        3-1     13.069 /_  116.0     1.048
19 . 1       7.5435 /_  -34.4    1.0478    12.470        1-2     13.055 /_   -4.3    1.0469
   - 2       7.5434 /_ -154.2    1.0478    12.470        2-3     13.019 /_ -124.2    1.0441
   - 3       7.5087 /_   86.0    1.0429    12.470        3-1     13.062 /_  115.9    1.0475
20 . 1       7.5349 /_  -34.5    1.0466    12.470        1-2     13.043 /_   -4.4    1.0459
   - 2       7.5368 /_ -154.3    1.0468    12.470        2-3      13.01 /_ -124.2    1.0433
   - 3       7.5067 /_   86.0    1.0427    12.470        3-1     13.054 /_  115.8    1.0468
21 . 1       7.5273 /_  -34.5    1.0455    12.470        1-2     13.032 /_   -4.5    1.0451
   - 2       7.5309 /_ -154.4     1.046    12.470        2-3     13.002 /_ -124.3    1.0427
   - 3       7.5049 /_   85.9    1.0424    12.470        3-1     13.046 /_  115.7    1.0462
22 . 1       7.5211 /_  -34.6    1.0447    12.470        1-2     13.023 /_   -4.5    1.0444
   - 2        7.526 /_ -154.5    1.0453    12.470        2-3     12.995 /_ -124.4    1.0421
   - 3       7.5034 /_   85.8    1.0422    12.470        3-1      13.04 /_  115.7    1.0457
23 . 1       7.5145 /_  -34.7    1.0437    12.470        1-2     13.014 /_   -4.6    1.0436
   - 2       7.5208 /_ -154.6    1.0446    12.470        2-3     12.988 /_ -124.4    1.0415
   - 3       7.5019 /_   85.8     1.042    12.470        3-1     13.034 /_  115.6    1.0452
24 . 1       7.5026 /_  -34.8    1.0421    12.470        1-2     12.996 /_   -4.7    1.0422
   - 2       7.5113 /_ -154.7    1.0433    12.470        2-3     12.975 /_ -124.5    1.0405
   - 3       7.4992 /_   85.7    1.0416    12.470        3-1     13.023 /_  115.5    1.0443
25 . 1       7.4888 /_  -34.9    1.0402    12.470        1-2     12.976 /_   -4.9    1.0406
   - 2       7.5004 /_ -154.9    1.0418    12.470        2-3     12.959 /_ -124.7    1.0393
   - 3        7.496 /_   85.6    1.0412    12.470        3-1     13.009 /_  115.3    1.0433
26 . 1       7.4796 /_  -35.0    1.0389    12.470        1-2     12.963 /_   -5.0    1.0395
   - 2        7.493 /_ -155.0    1.0408    12.470        2-3     12.949 /_ -124.7    1.0384
   - 3        7.494 /_   85.5    1.0409    12.470        3-1     13.001 /_  115.2    1.0425
27 . 1       7.4722 /_  -35.1    1.0379    12.470        1-2     12.952 /_   -5.0    1.0387
   - 2       7.4871 /_ -155.1    1.0399    12.470        2-3     12.941 /_ -124.8    1.0378
   - 3       7.4923 /_   85.4    1.0407    12.470        3-1     12.993 /_  115.1     1.042
28 . 1       7.4676 /_  -35.1    1.0372    12.470        1-2     12.946 /_   -5.1    1.0382
   - 2       7.4834 /_ -155.1    1.0394    12.470        2-3     12.936 /_ -124.8    1.0374
   - 3       7.4913 /_   85.4    1.0405    12.470        3-1     12.989 /_  115.1    1.0416
29 . 1       7.4621 /_  -35.2    1.0365    12.470        1-2     12.938 /_   -5.2    1.0375
   - 2        7.479 /_ -155.2    1.0388    12.470        2-3      12.93 /_ -124.9    1.0369
   - 3       7.4901 /_   85.3    1.0404    12.470        3-1     12.984 /_  115.0    1.0412
34 . 1       7.4345 /_  -35.5    1.0326    12.470        1-2     12.898 /_   -5.5    1.0343
   - 2       7.4579 /_ -155.5    1.0359    12.470        2-3       12.9 /_ -125.2    1.0345
   - 3       7.4837 /_   85.1    1.0395    12.470        3-1     12.958 /_  114.7    1.0391
41 . 1       7.4018 /_  -35.9    1.0281    12.470        1-2     12.851 /_   -5.8    1.0305
   - 2       7.4329 /_ -155.9    1.0324    12.470        2-3     12.865 /_ -125.5    1.0317
   - 3       7.4762 /_   84.8    1.0384    12.470        3-1     12.927 /_  114.3    1.0367
45 . 1       7.3974 /_  -35.9    1.0275    12.470        1-2     12.845 /_   -5.9      1.03
   - 2       7.4297 /_ -156.0     1.032    12.470        2-3      12.86 /_ -125.5    1.0313
   - 3       7.4753 /_   84.8    1.0383    12.470        3-1     12.923 /_  114.2    1.0364
51 . 1       7.3862 /_  -36.0    1.0259    12.470        1-2     12.829 /_   -6.0    1.0288
   - 2       7.4213 /_ -156.1    1.0308    12.470        2-3     12.848 /_ -125.6    1.0303
   - 3       7.4732 /_   84.7     1.038    12.470        3-1     12.913 /_  114.1    1.0356
52 . 1       7.3818 /_  -36.1    1.0253    12.470        1-2     12.823 /_   -6.1    1.0283
   - 2        7.418 /_ -156.2    1.0303    12.470        2-3     12.844 /_ -125.7      1.03
   - 3       7.4723 /_   84.6    1.0379    12.470        3-1     12.909 /_  114.1    1.0352
53 . 1       7.3809 /_  -36.1    1.0252    12.470        1-2     12.821 /_   -6.1    1.0282
   - 2       7.4172 /_ -156.2    1.0302    12.470        2-3     12.843 /_ -125.7    1.0299
   - 3       7.4721 /_   84.6    1.0379    12.470        3-1     12.909 /_  114.1    1.0352
54 . 1        7.374 /_  -36.2    1.0242    12.470        1-2     12.811 /_   -6.1    1.0274
   - 2       7.4117 /_ -156.3    1.0295    12.470        2-3     12.835 /_ -125.7    1.0293
   - 3       7.4708 /_   84.5    1.0377    12.470        3-1     12.902 /_  114.0    1.0347
56 . 1       7.3704 /_  -36.2    1.0237    12.470        1-2     12.806 /_   -6.2     1.027
   - 2       7.4089 /_ -156.3    1.0291    12.470        2-3     12.831 /_ -125.8     1.029
   - 3       7.4701 /_   84.5    1.0376    12.470        3-1     12.899 /_  113.9    1.0344
57 . 1       7.3607 /_  -36.3    1.0224    12.470        1-2     12.792 /_   -6.3    1.0258
   - 2       7.4009 /_ -156.5     1.028    12.470        2-3      12.82 /_ -125.9    1.0281
   - 3       7.4682 /_   84.4    1.0373    12.470        3-1      12.89 /_  113.8    1.0337
58 . 1       7.3553 /_  -36.4    1.0216    12.470        1-2     12.785 /_   -6.4    1.0252
   - 2       7.3966 /_ -156.5    1.0274    12.470        2-3     12.814 /_ -125.9    1.0276
   - 3       7.4672 /_   84.4    1.0372    12.470        3-1     12.885 /_  113.7    1.0333
59 . 1       7.3549 /_  -36.4    1.0216    12.470        1-2     12.784 /_   -6.4    1.0252
   - 2       7.3961 /_ -156.5    1.0273    12.470        2-3     12.814 /_ -125.9    1.0276
   - 3       7.4669 /_   84.4    1.0371    12.470        3-1     12.884 /_  113.7    1.0332
60 . 1       7.3539 /_  -36.4    1.0214    12.470        1-2     12.782 /_   -6.4     1.025
   - 2       7.3953 /_ -156.5    1.0272    12.470        2-3     12.813 /_ -125.9    1.0275
   - 3       7.4667 /_   84.4    1.0371    12.470        3-1     12.883 /_  113.7    1.0332
61 . 1       7.3505 /_  -36.4     1.021    12.470        1-2     12.777 /_   -6.4    1.0247
   - 2       7.3925 /_ -156.6    1.0268    12.470        2-3     12.809 /_ -126.0    1.0272
   - 3       7.4661 /_   84.3     1.037    12.470        3-1      12.88 /_  113.7    1.0329
62 . 1       7.3499 /_  -36.4    1.0209    12.470        1-2     12.777 /_   -6.4    1.0246
   - 2       7.3921 /_ -156.6    1.0267    12.470        2-3     12.808 /_ -126.0    1.0271
   - 3        7.466 /_   84.3     1.037    12.470        3-1      12.88 /_  113.7    1.0329
63 . 1       7.3431 /_  -36.5    1.0199    12.470        1-2     12.767 /_   -6.5    1.0238
   - 2       7.3866 /_ -156.7     1.026    12.470        2-3     12.801 /_ -126.0    1.0265
   - 3       7.4647 /_   84.2    1.0368    12.470        3-1     12.874 /_  113.6    1.0324
64 . 1        7.339 /_  -36.6    1.0194    12.470        1-2     12.761 /_   -6.6    1.0233
   - 2       7.3832 /_ -156.7    1.0255    12.470        2-3     12.796 /_ -126.1    1.0261
   - 3       7.4639 /_   84.2    1.0367    12.470        3-1      12.87 /_  113.5    1.0321
65 . 1       7.3358 /_  -36.6    1.0189    12.470        1-2     12.756 /_   -6.6     1.023
   - 2       7.3807 /_ -156.8    1.0252    12.470        2-3     12.793 /_ -126.1    1.0259
   - 3       7.4634 /_   84.2    1.0367    12.470        3-1     12.867 /_  113.5    1.0318
66 . 1       7.3354 /_  -36.6    1.0189    12.470        1-2     12.756 /_   -6.6    1.0229
   - 2       7.3802 /_ -156.8    1.0251    12.470        2-3     12.792 /_ -126.1    1.0258
   - 3       7.4631 /_   84.2    1.0366    12.470        3-1     12.866 /_  113.5    1.0318
67 . 1       7.3349 /_  -36.6    1.0188    12.470        1-2     12.755 /_   -6.6    1.0228
   - 2       7.3798 /_ -156.8     1.025    12.470        2-3     12.791 /_ -126.1    1.0258
   - 3       7.4627 /_   84.2    1.0366    12.470        3-1     12.866 /_  113.5    1.0317
68 . 1       7.3344 /_  -36.6    1.0187    12.470        1-2     12.754 /_   -6.6    1.0228
   - 2       7.3794 /_ -156.8     1.025    12.470        2-3     12.791 /_ -126.1    1.0257
   - 3       7.4626 /_   84.2    1.0365    12.470        3-1     12.865 /_  113.5    1.0317
69 . 1       7.3298 /_  -36.7    1.0181    12.470        1-2     12.747 /_   -6.7    1.0222
   - 2       7.3756 /_ -156.8    1.0244    12.470        2-3     12.785 /_ -126.2    1.0253
   - 3       7.4614 /_   84.1    1.0364    12.470        3-1     12.861 /_  113.4    1.0313
70 . 1       7.3184 /_  -36.8    1.0165    12.470        1-2     12.731 /_   -6.8    1.0209
   - 2       7.3662 /_ -157.0    1.0231    12.470        2-3     12.772 /_ -126.3    1.0242
   - 3       7.4582 /_   84.0    1.0359    12.470        3-1     12.849 /_  113.3    1.0304
71 . 1       7.3122 /_  -36.8    1.0156    12.470        1-2     12.722 /_   -6.8    1.0202
   - 2       7.3614 /_ -157.0    1.0225    12.470        2-3     12.765 /_ -126.3    1.0237
   - 3       7.4567 /_   84.0    1.0357    12.470        3-1     12.843 /_  113.3    1.0299
73 . 1       7.3127 /_  -36.8    1.0157    12.470        1-2     12.719 /_   -6.9      1.02
   - 2       7.3582 /_ -157.1     1.022    12.470        2-3     12.762 /_ -126.3    1.0234
   - 3        7.454 /_   83.9    1.0353    12.470        3-1     12.839 /_  113.2    1.0296
79 . 1        7.313 /_  -36.9    1.0158    12.470        1-2     12.717 /_   -6.9    1.0198
   - 2       7.3555 /_ -157.1    1.0217    12.470        2-3     12.759 /_ -126.4    1.0232
   - 3       7.4518 /_   83.9     1.035    12.470        3-1     12.836 /_  113.2    1.0293
80 . 1        7.313 /_  -36.9    1.0158    12.470        1-2     12.717 /_   -6.9    1.0198
   - 2       7.3554 /_ -157.1    1.0216    12.470        2-3     12.759 /_ -126.4    1.0232
   - 3       7.4516 /_   83.9     1.035    12.470        3-1     12.836 /_  113.2    1.0293
82 . 1       7.3132 /_  -36.9    1.0158    12.470        1-2     12.716 /_   -6.9    1.0197
   - 2       7.3535 /_ -157.1    1.0214    12.470        2-3     12.758 /_ -126.4    1.0231
   - 3       7.4501 /_   83.9    1.0348    12.470        3-1     12.834 /_  113.2    1.0292
84 . 1       7.3135 /_  -36.9    1.0158    12.470        1-2     12.714 /_   -6.9    1.0196
   - 2       7.3514 /_ -157.1    1.0211    12.470        2-3     12.756 /_ -126.4    1.0229
   - 3       7.4484 /_   83.8    1.0346    12.470        3-1     12.831 /_  113.2     1.029
86 . 1       7.3136 /_  -36.9    1.0158    12.470        1-2     12.712 /_   -7.0    1.0194
   - 2       7.3495 /_ -157.1    1.0208    12.470        2-3     12.754 /_ -126.5    1.0228
   - 3        7.447 /_   83.8    1.0344    12.470        3-1     12.829 /_  113.1    1.0288
90 . 1       7.3139 /_  -37.0    1.0159    12.470        1-2      12.71 /_   -7.0    1.0192
   - 2       7.3458 /_ -157.2    1.0203    12.470        2-3      12.75 /_ -126.5    1.0225
   - 3       7.4443 /_   83.7     1.034    12.470        3-1     12.825 /_  113.1    1.0284
91 . 1       7.3139 /_  -37.0    1.0159    12.470        1-2      12.71 /_   -7.0    1.0192
   - 2       7.3458 /_ -157.2    1.0203    12.470        2-3      12.75 /_ -126.5    1.0225
   - 3       7.4443 /_   83.7     1.034    12.470        3-1     12.825 /_  113.1    1.0284
93 . 1        7.314 /_  -37.0    1.0159    12.470        1-2     12.708 /_   -7.0    1.0191
   - 2       7.3441 /_ -157.2    1.0201    12.470        2-3     12.749 /_ -126.5    1.0224
   - 3       7.4431 /_   83.7    1.0338    12.470        3-1     12.823 /_  113.1    1.0283
95 . 1       7.3141 /_  -37.0    1.0159    12.470        1-2     12.707 /_   -7.0     1.019
   - 2       7.3426 /_ -157.2    1.0199    12.470        2-3     12.747 /_ -126.5    1.0222
   - 3        7.442 /_   83.7    1.0337    12.470        3-1     12.821 /_  113.1    1.0282
96 . 1       7.3139 /_  -37.0    1.0159    12.470        1-2     12.707 /_   -7.0     1.019
   - 2       7.3423 /_ -157.2    1.0198    12.470        2-3     12.747 /_ -126.5    1.0222
   - 3       7.4417 /_   83.7    1.0336    12.470        3-1     12.821 /_  113.1    1.0281
98 . 1       7.3141 /_  -37.0    1.0159    12.470        1-2     12.705 /_   -7.1    1.0188
   - 2       7.3401 /_ -157.2    1.0195    12.470        2-3     12.745 /_ -126.6     1.022
   - 3       7.4401 /_   83.6    1.0334    12.470        3-1     12.818 /_  113.0    1.0279
99 . 1       7.3143 /_  -37.0    1.0159    12.470        1-2     12.703 /_   -7.1    1.0187
   - 2       7.3382 /_ -157.2    1.0193    12.470        2-3     12.743 /_ -126.6    1.0219
   - 3       7.4385 /_   83.6    1.0332    12.470        3-1     12.816 /_  113.0    1.0277
100  1       7.3132 /_  -37.0    1.0158    12.470        1-2     12.702 /_   -7.1    1.0186
   - 2       7.3378 /_ -157.2    1.0192    12.470        2-3     12.743 /_ -126.6    1.0219
   - 3       7.4386 /_   83.6    1.0332    12.470        3-1     12.815 /_  113.0    1.0277
102  1       7.3128 /_  -37.0    1.0157    12.470        1-2     12.701 /_   -7.1    1.0186
   - 2       7.3376 /_ -157.2    1.0192    12.470        2-3     12.742 /_ -126.6    1.0218
   - 3       7.4386 /_   83.6    1.0332    12.470        3-1     12.815 /_  113.0    1.0277
106  1       7.3107 /_  -37.0    1.0154    12.470        1-2     12.699 /_   -7.1    1.0184
   - 2       7.3368 /_ -157.2    1.0191    12.470        2-3     12.741 /_ -126.6    1.0218
   - 3       7.4387 /_   83.6    1.0332    12.470        3-1     12.814 /_  113.0    1.0276
111  1       7.3106 /_  -37.0    1.0154    12.470        1-2     12.698 /_   -7.1    1.0183
   - 2       7.3354 /_ -157.2    1.0189    12.470        2-3      12.74 /_ -126.6    1.0217
   - 3       7.4391 /_   83.6    1.0333    12.470        3-1     12.814 /_  113.0    1.0276
124  1       7.3103 /_  -37.0    1.0154    12.470        1-2     12.696 /_   -7.1    1.0181
   - 2       7.3326 /_ -157.2    1.0185    12.470        2-3     12.738 /_ -126.6    1.0215
   - 3       7.4398 /_   83.6    1.0334    12.470        3-1     12.814 /_  113.0    1.0276
101  1       7.3149 /_  -37.0     1.016    12.470        1-2     12.701 /_   -7.1    1.0186
   - 2       7.3357 /_ -157.3    1.0189    12.470        2-3     12.741 /_ -126.6    1.0217
   - 3       7.4365 /_   83.6    1.0329    12.470        3-1     12.813 /_  113.0    1.0275
104  1       7.3156 /_  -37.1    1.0161    12.470        1-2       12.7 /_   -7.1    1.0184
   - 2       7.3333 /_ -157.3    1.0186    12.470        2-3     12.739 /_ -126.7    1.0216
...
